/*--------------------------------*- C++ -*----------------------------------*\
  =========                 |
  \\      /  F ield         | OpenFOAM: The Open Source CFD Toolbox
   \\    /   O peration     | Website:  https://openfoam.org
    \\  /    A nd           | Version:  9
     \\/     M anipulation  |
\*---------------------------------------------------------------------------*/
FoamFile
{
    format      ascii;
    class       dictionary;
    location    "constant";
    object      velocitySetData;
}
// * * * * * * * * * * * * * * * * * * * * * * * * * * * * * * * * * * * * * //

dirNum          3;

lICS2           3;

MCD             6;

wNum_0          4;

wNum_1          1;

wNum_2          1;

lattVect_0      ( 0 0 0 );

lattVect_1      ( 1 0 0 );

lattVect_2      ( -1 0 0 );

inKey
{
    "0"             0;
    "1"             2;
    "2"             1;
}

c
{
    value           100;
}


// ************************************************************************* //
