/*--------------------------------*- C++ -*----------------------------------*\
  =========                 |
  \\      /  F ield         | OpenFOAM: The Open Source CFD Toolbox
   \\    /   O peration     | Website:  https://openfoam.org
    \\  /    A nd           | Version:  9
     \\/     M anipulation  |
\*---------------------------------------------------------------------------*/
FoamFile
{
    format      ascii;
    class       volScalarField;
    location    "0";
    object      f_2;
}
// * * * * * * * * * * * * * * * * * * * * * * * * * * * * * * * * * * * * * //

dimensions      [1 -3 0 0 0 0 0];

internalField   uniform 142.917;

boundaryField
{
    topWall
    {
        type            empty;
    }
    bottomWall
    {
        type            empty;
    }
    rightWall
    {
        type            lbmWall;
        wallVelocity    (0 0 0);
        index           2;
        value           uniform 4.66497e-310;
    }
    leftWall
    {
        type            lbmWall;
        wallVelocity    (0 0 0);
        index           2;
        value           uniform 1.13863e-313;
    }
    frontAndBack
    {
        type            empty;
    }
}


// ************************************************************************* //
