/*--------------------------------*- C++ -*----------------------------------*\
| =========                 |                                                 |
| \\      /  F ield         | OpenFOAM: The Open Source CFD Toolbox           |
|  \\    /   O peration     | Version:  4.1                                   |
|   \\  /    A nd           | Web:      www.OpenFOAM.org                      |
|    \\/     M anipulation  |                                                 |
\*---------------------------------------------------------------------------*/
FoamFile
{
    version     2.0;
    format      ascii;
    class       dictionary;
    location    "system";
    object      setFieldsDict;
}
// * * * * * * * * * * * * * * * * * * * * * * * * * * * * * * * * * * * * * //

defaultFieldValues
(	
	volVectorFieldValue #codeStream
	{
	  codeInclude
	  #{
	      #include "fvCFD.H"
	  #};

	  codeOptions
	  #{
	      -I$(LIB_SRC)/finiteVolume/lnInclude \
	      -I$(LIB_SRC)/meshTools/lnInclude
	  #};

	  codeLibs
	  #{
	      -lmeshTools \
	      -lfiniteVolume
	  #};

	  code
	  #{
		// profile parameters declaration
		scalar IwidthU2(4);
		scalar minU(0.5);
		scalar deltaU(10);
		scalar xLoc;
		scalar uX;

		const IOdictionary& d = static_cast<const IOdictionary&>(dict);
		const fvMesh& mesh = refCast<const fvMesh>(d.db());

		// initialize field
		vectorField U(mesh.nCells(), vector(0.,0.,0.));
		forAll(U, cI)
		{
		  xLoc = mesh.C()[cI].x();
		  uX = minU + deltaU*exp(-xLoc*xLoc*IwidthU2);
		  U[cI] = vector(uX,0.,0.);
		}
		writeEntry(os, "", U);
	  #};
	};
	
	volScalarFieldValue f_0 0
	volScalarFieldValue f_1 0
	volScalarFieldValue f_2 0
);

regions
(

);


// ************************************************************************* //
