/*--------------------------------*- C++ -*----------------------------------*\
  =========                 |
  \\      /  F ield         | OpenFOAM: The Open Source CFD Toolbox
   \\    /   O peration     | Website:  https://openfoam.org
    \\  /    A nd           | Version:  9
     \\/     M anipulation  |
\*---------------------------------------------------------------------------*/
FoamFile
{
    format      ascii;
    class       volScalarField;
    location    "0";
    object      prec6;
}
// * * * * * * * * * * * * * * * * * * * * * * * * * * * * * * * * * * * * * //

dimensions      [0 -3 0 0 0 0 0];

internalField   uniform 1.00053e+09;

boundaryField
{
    topWall
    {
        type            inletOutlet;
        inletValue      uniform 0;
        value           uniform 0;
    }
    bottomWall
    {
        type            inletOutlet;
        inletValue      uniform 0;
        value           uniform 0;
    }
    rightWall
    {
        type            zeroGradient;
    }
    leftWall
    {
        type            zeroGradient;
    }
    frontAndBack
    {
        type            empty;
    }
}


// ************************************************************************* //
