/*--------------------------------*- C++ -*----------------------------------*\
| =========                 |                                                 |
| \\      /  F ield         | OpenFOAM: The Open Source CFD Toolbox           |
|  \\    /   O peration     | Version:  2.1.0                                 |
|   \\  /    A nd           | Web:      www.OpenFOAM.org                      |
|    \\/     M anipulation  |                                                 |
\*---------------------------------------------------------------------------*/
FoamFile
{
    version     2.0;
    format      ascii;
    class       dictionary;
    object      nuclearProperties;
}

// * * * * * * * * * * * * * * * * * * * * * * * * * * * * * * * * * * * * * //

IV0             IV0       [0 -1 1 0 0 0 0] 	   1e-2;//6.55767e-07;

D0_0            D0_0       [0 1 0 0 0 0 0] 	   1.17204e-2;
alfa_D0         alfa_D0    [0 1 0 0 0 0 0] 	  -5.9788e-05;

A0_0            A0_0      [0 -1 0 0 0 0 0]  	 6.89269e-01;
alfa_A0         alfa_A0   [0 -1 0 0 0 0 0]   	 7.8420e-03;

NSF0_0          NSF0_0    [0 -1 0 0 0 0 0]     7.53492e-01;
alfa_NSF0       alfa_NSF0 [0 -1 0 0 0 0 0] 	  -1.7001e-02;

SP0_0           SP0_0     [1 1 -2 0 0 0 0]     9.5731e-12;
alfa_SP0        alfa_SP0  [1 1 -2 0 0 0 0]  	-2.0595e-13;

TrefXS          TrefXS     [0 0 0 1 0 0 0] 	   900;

// ************************************************************************* //
